Circuit: * C:\Users\Thomas\Documents\Travail\Formation\FPGA\TD\MSOFET\Draft2.asc

Direct Newton iteration for .op point succeeded.

Date: Fri Apr 28 10:30:07 2023
Total elapsed time: 0.117 seconds.

tnom = 27
temp = 27
method = modified trap
totiter = 6840
traniter = 6828
tranpoints = 2938
accept = 2558
rejected = 380
matrix size = 8
fillins = 0
solver = Normal
Avg thread counts: 1.1/1.2/1.2/1.1
Matrix Compiler1: 300 bytes object code size  0.4/0.3/[0.2]
Matrix Compiler2: 602 bytes object code size  0.3/0.3/[0.2]

