Circuit: * C:\Users\Thomas\Documents\Travail\Formation\FPGA\TD\MSOFET\Draft1.asc

Direct Newton iteration for .op point succeeded.
Changing Tseed to 1e-09
Changing Tseed to 1e-11
Changing Tseed to 1e-08
Changing Tseed to 1e-12

Date: Fri Apr 28 10:18:34 2023
Total elapsed time: 0.147 seconds.

tnom = 27
temp = 27
method = modified trap
totiter = 7582
traniter = 7578
tranpoints = 2866
accept = 2546
rejected = 316
matrix size = 8
fillins = 0
solver = Normal
Avg thread counts: 1.1/1.2/1.2/1.1
Matrix Compiler1:      16 opcodes  0.3/[0.2]/0.3
Matrix Compiler2: 648 bytes object code size  0.3/0.3/[0.2]

