Circuit: * C:\Users\Thomas\Documents\Travail\Formation\FPGA\TD\MSOFET\Draft1.asc

Direct Newton iteration for .op point succeeded.

Date: Thu Apr 27 15:56:16 2023
Total elapsed time: 0.151 seconds.

tnom = 27
temp = 27
method = modified trap
totiter = 5822
traniter = 5810
tranpoints = 2667
accept = 2309
rejected = 358
matrix size = 13
fillins = 1
solver = Normal
Avg thread counts: 1.1/1.2/1.2/1.1
Matrix Compiler1: 746 bytes object code size  0.5/0.5/[0.4]
Matrix Compiler2: 1.01 KB object code size  0.3/0.5/[0.3]

