Circuit: * C:\Users\Thomas\Documents\Travail\Formation\FPGA\TD\MSOFET\Full Substractor\FullSubstractor.asc

WARNING: Less than two connections to node d.  This node is used by a5.
WARNING: Less than two connections to node bout.  This node is used by a3.
Direct Newton iteration for .op point succeeded.

Date: Fri Apr 28 17:38:06 2023
Total elapsed time: 0.065 seconds.

tnom = 27
temp = 27
method = modified trap
totiter = 3315
traniter = 3312
tranpoints = 1647
accept = 1515
rejected = 132
matrix size = 12
fillins = 0
solver = Normal
Avg thread counts: 1.2/1.4/1.4/1.2
Matrix Compiler1:      14 opcodes  0.2/[0.2]/0.3
Matrix Compiler2: off  [0.2]/0.3/0.2

