Circuit: * C:\Users\Thomas\Documents\Travail\Formation\FPGA\TD\MSOFET\Draft2.asc

Direct Newton iteration for .op point succeeded.

Date: Thu Apr 27 16:37:29 2023
Total elapsed time: 0.110 seconds.

tnom = 27
temp = 27
method = modified trap
totiter = 4366
traniter = 4350
tranpoints = 1784
accept = 1628
rejected = 156
matrix size = 8
fillins = 0
solver = Normal
Avg thread counts: 1.2/1.4/1.4/1.2
Matrix Compiler1: 318 bytes object code size  0.2/0.2/[0.2]
Matrix Compiler2: 596 bytes object code size  0.3/0.3/[0.2]

